cgmes/cgmes-converter/src/test/resources/cim14/7buses.xiidm
<?xml version='1.0' encoding='UTF-8'?>
<iidm:network xmlns:iidm="http://www.itesla_project.eu/schema/iidm/1_0" id="m7buses" caseDate="2019-04-01T15:09:55.001+02:00" forecastDistance="0" sourceFormat="CIM1">
    <iidm:substation id="_FP.AND11_SS" name="FP.AND11_SS" geographicalTags="_SGR_07">
        <iidm:voltageLevel id="_FTDPRA11_VL" name="FTDPRA11_VL" nominalV="380.0" topologyKind="BUS_BREAKER">
            <iidm:busBreakerTopology>
                <iidm:bus id="_FTDPRA12_TN" v="406.4447937011719" angle="-0.017328999936580658"/>
                <iidm:bus id="_FTDPRA11_TN" v="406.4447937011719" angle="-0.017328999936580658"/>
                <iidm:switch id="_FTDPRA11-FTDPRA12-A_SW" name="FTDPRA11-FTDPRA12-A" kind="BREAKER" retained="true" open="false" bus1="_FTDPRA11_TN" bus2="_FTDPRA12_TN"/>
            </iidm:busBreakerTopology>
            <iidm:load id="_FTDPRC11_EC" name="FTDPRC11" loadType="UNDEFINED" p0="480.0" q0="4.800000190734863" bus="_FTDPRA11_TN" connectableBus="_FTDPRA11_TN" p="480.0" q="4.800000190734863"/>
        </iidm:voltageLevel>
        <iidm:voltageLevel id="_FP.AND11_VL" name="FP.AND11_VL" nominalV="380.0" topologyKind="BUS_BREAKER">
            <iidm:busBreakerTopology>
                <iidm:bus id="_FP.AND12_TN" v="406.4466552734375" angle="0.01733900047838688"/>
                <iidm:bus id="_FP.AND11_TN" v="406.4466552734375" angle="0.01733900047838688"/>
                <iidm:switch id="_FP.AND11-FP.AND12-A_SW" name="FP.AND11-FP.AND12-A" kind="BREAKER" retained="true" open="false" bus1="_FP.AND11_TN" bus2="_FP.AND12_TN"/>
            </iidm:busBreakerTopology>
            <iidm:load id="_FP.ANC12_EC" name="FP.ANC12" loadType="UNDEFINED" p0="240.0" q0="2.4000000953674316" bus="_FP.AND11_TN" connectableBus="_FP.AND11_TN" p="240.0" q="2.4000000953674316"/>
        </iidm:voltageLevel>
        <iidm:twoWindingsTransformer id="_FP.AND11-FTDPRA11-1_PT" name="FP.AND11-FTDPRA11-1" r="0.009999940171837807" x="0.9999989867210388" g="0.0" b="0.0" ratedU1="380.0" ratedU2="380.0" bus1="_FP.AND11_TN" connectableBus1="_FP.AND11_TN" voltageLevelId1="_FP.AND11_VL" bus2="_FTDPRA11_TN" connectableBus2="_FTDPRA11_TN" voltageLevelId2="_FTDPRA11_VL">
            <iidm:phaseTapChanger lowTapPosition="1" tapPosition="17" regulationMode="FIXED_TAP">
                <iidm:step r="0.0" x="0.0" g="0.0" b="0.0" rho="1.0" alpha="-9.167216087934422"/>
                <iidm:step r="0.0" x="0.0" g="0.0" b="0.0" rho="1.0" alpha="-8.594264815634256"/>
                <iidm:step r="0.0" x="0.0" g="0.0" b="0.0" rho="1.0" alpha="-8.021314397107737"/>
                <iidm:step r="0.0" x="0.0" g="0.0" b="0.0" rho="1.0" alpha="-7.448363124807571"/>
                <iidm:step r="0.0" x="0.0" g="0.0" b="0.0" rho="1.0" alpha="-6.875411852507406"/>
                <iidm:step r="0.0" x="0.0" g="0.0" b="0.0" rho="1.0" alpha="-6.302461007094062"/>
                <iidm:step r="0.0" x="0.0" g="0.0" b="0.0" rho="1.0" alpha="-5.72951016168072"/>
                <iidm:step r="0.0" x="0.0" g="0.0" b="0.0" rho="1.0" alpha="-5.156558889380554"/>
                <iidm:step r="0.0" x="0.0" g="0.0" b="0.0" rho="1.0" alpha="-4.583608043967211"/>
                <iidm:step r="0.0" x="0.0" g="0.0" b="0.0" rho="1.0" alpha="-4.010657198553869"/>
                <iidm:step r="0.0" x="0.0" g="0.0" b="0.0" rho="1.0" alpha="-3.437705926253703"/>
                <iidm:step r="0.0" x="0.0" g="0.0" b="0.0" rho="1.0" alpha="-2.86475508084036"/>
                <iidm:step r="0.0" x="0.0" g="0.0" b="0.0" rho="1.0" alpha="-2.2918040219836056"/>
                <iidm:step r="0.0" x="0.0" g="0.0" b="0.0" rho="1.0" alpha="-1.7188529631268514"/>
                <iidm:step r="0.0" x="0.0" g="0.0" b="0.0" rho="1.0" alpha="-1.1459020109918028"/>
                <iidm:step r="0.0" x="0.0" g="0.0" b="0.0" rho="1.0" alpha="-0.5729510054959014"/>
                <iidm:step r="0.0" x="0.0" g="0.0" b="0.0" rho="1.0" alpha="0.0"/>
                <iidm:step r="0.0" x="0.0" g="0.0" b="0.0" rho="1.0" alpha="0.5729510054959014"/>
                <iidm:step r="0.0" x="0.0" g="0.0" b="0.0" rho="1.0" alpha="1.1459020109918028"/>
                <iidm:step r="0.0" x="0.0" g="0.0" b="0.0" rho="1.0" alpha="1.7188529631268514"/>
                <iidm:step r="0.0" x="0.0" g="0.0" b="0.0" rho="1.0" alpha="2.2918040219836056"/>
                <iidm:step r="0.0" x="0.0" g="0.0" b="0.0" rho="1.0" alpha="2.86475508084036"/>
                <iidm:step r="0.0" x="0.0" g="0.0" b="0.0" rho="1.0" alpha="3.437705926253703"/>
                <iidm:step r="0.0" x="0.0" g="0.0" b="0.0" rho="1.0" alpha="4.010657198553869"/>
                <iidm:step r="0.0" x="0.0" g="0.0" b="0.0" rho="1.0" alpha="4.583608043967211"/>
                <iidm:step r="0.0" x="0.0" g="0.0" b="0.0" rho="1.0" alpha="5.156558889380554"/>
                <iidm:step r="0.0" x="0.0" g="0.0" b="0.0" rho="1.0" alpha="5.72951016168072"/>
                <iidm:step r="0.0" x="0.0" g="0.0" b="0.0" rho="1.0" alpha="6.302461007094062"/>
                <iidm:step r="0.0" x="0.0" g="0.0" b="0.0" rho="1.0" alpha="6.875411852507406"/>
                <iidm:step r="0.0" x="0.0" g="0.0" b="0.0" rho="1.0" alpha="7.448363124807571"/>
                <iidm:step r="0.0" x="0.0" g="0.0" b="0.0" rho="1.0" alpha="8.021314397107737"/>
                <iidm:step r="0.0" x="0.0" g="0.0" b="0.0" rho="1.0" alpha="8.594264815634256"/>
                <iidm:step r="0.0" x="0.0" g="0.0" b="0.0" rho="1.0" alpha="9.167216087934422"/>
            </iidm:phaseTapChanger>
            <iidm:currentLimits1 permanentLimit="1000.0"/>
            <iidm:currentLimits2 permanentLimit="1000.0"/>
        </iidm:twoWindingsTransformer>
    </iidm:substation>
    <iidm:substation id="_FS.BIS11_SS" name="FS.BIS11_SS" geographicalTags="_SGR_07">
        <iidm:voltageLevel id="_FS.BIS11_VL" name="FS.BIS11_VL" nominalV="380.0" topologyKind="BUS_BREAKER">
            <iidm:busBreakerTopology>
                <iidm:bus id="_FS.BIS12_TN" v="406.44244384765625" angle="-0.0034580000210553408"/>
                <iidm:bus id="_FS.BIS11_TN" v="406.44244384765625" angle="-0.0034580000210553408"/>
                <iidm:switch id="_FS.BIS11-FS.BIS12-A_SW" name="FS.BIS11-FS.BIS12-A" kind="BREAKER" retained="true" open="false" bus1="_FS.BIS11_TN" bus2="_FS.BIS12_TN"/>
            </iidm:busBreakerTopology>
            <iidm:load id="_FS.BIC11_EC" name="FS.BIC11" loadType="UNDEFINED" p0="240.0" q0="2.4000000953674316" bus="_FS.BIS11_TN" connectableBus="_FS.BIS11_TN" p="240.0" q="2.4000000953674316"/>
        </iidm:voltageLevel>
    </iidm:substation>
    <iidm:substation id="_FSSV.O11_SS" name="FSSV.O11_SS" geographicalTags="_SGR_07">
        <iidm:voltageLevel id="_FSSV.O11_VL" name="FSSV.O11_VL" nominalV="380.0" topologyKind="BUS_BREAKER">
            <iidm:busBreakerTopology>
                <iidm:bus id="_FSSV.O12_TN" v="406.45001220703125" angle="0.09358499944210052"/>
                <iidm:bus id="_FSSV.O11_TN" v="406.45001220703125" angle="0.09358499944210052"/>
                <iidm:switch id="_FSSV.O11-FSSV.O12-A_SW" name="FSSV.O11-FSSV.O12-A" kind="BREAKER" retained="true" open="false" bus1="_FSSV.O11_TN" bus2="_FSSV.O12_TN"/>
            </iidm:busBreakerTopology>
            <iidm:generator id="_FSSV.T11_SM" name="FSSV.T11" energySource="OTHER" minP="400.0" maxP="1200.0" voltageRegulatorOn="true" targetP="960.0130004882812" targetV="406.45001220703125" targetQ="2.865334987640381" bus="_FSSV.O11_TN" connectableBus="_FSSV.O11_TN" p="-960.0130004882812" q="-2.865334987640381">
                <iidm:minMaxReactiveLimits minQ="-200.0" maxQ="200.0"/>
            </iidm:generator>
        </iidm:voltageLevel>
    </iidm:substation>
    <iidm:substation id="_FTILL511_SS" name="FTILL511_SS" geographicalTags="_SGR_07">
        <iidm:voltageLevel id="_FTILL511_VL" name="FTILL511_VL" nominalV="380.0" topologyKind="BUS_BREAKER">
            <iidm:busBreakerTopology>
                <iidm:bus id="_FTILL512_TN" v="406.4404602050781" angle="0.0034779999405145645"/>
                <iidm:bus id="_FTILL511_TN" v="406.4404602050781" angle="0.0034779999405145645"/>
                <iidm:switch id="_FTILL511-FTILL512-A_SW" name="FTILL511-FTILL512-A" kind="BREAKER" retained="true" open="false" bus1="_FTILL511_TN" bus2="_FTILL512_TN"/>
            </iidm:busBreakerTopology>
            <iidm:load id="_FTILLC51_EC" name="FTILLC51" loadType="UNDEFINED" p0="480.0" q0="4.800000190734863" bus="_FTILL511_TN" connectableBus="_FTILL511_TN" p="480.0" q="4.800000190734863"/>
        </iidm:voltageLevel>
    </iidm:substation>
    <iidm:substation id="_FVALDI11_SS" name="FVALDI11_SS" geographicalTags="_SGR_07">
        <iidm:voltageLevel id="_FVALDI11_VL" name="FVALDI11_VL" nominalV="380.0" topologyKind="BUS_BREAKER">
            <iidm:busBreakerTopology>
                <iidm:bus id="_FVALDI12_TN" v="406.45001220703125" angle="0.03119100071489811"/>
                <iidm:bus id="_FVALDI11_TN" v="406.45001220703125" angle="0.03119100071489811"/>
                <iidm:switch id="_FVALDI11-FVALDI12-A_SW" name="FVALDI11-FVALDI12-A" kind="BREAKER" retained="true" open="false" bus1="_FVALDI11_TN" bus2="_FVALDI12_TN"/>
            </iidm:busBreakerTopology>
            <iidm:generator id="_FVALDT11_SM" name="FVALDT11" energySource="OTHER" minP="400.0" maxP="1200.0" voltageRegulatorOn="true" targetP="480.0060119628906" targetV="406.45001220703125" targetQ="6.419357776641846" bus="_FVALDI11_TN" connectableBus="_FVALDI11_TN" p="-480.0060119628906" q="-6.419357776641846">
                <iidm:minMaxReactiveLimits minQ="-200.0" maxQ="200.0"/>
            </iidm:generator>
        </iidm:voltageLevel>
    </iidm:substation>
    <iidm:substation id="_FVERGE11_SS" name="FVERGE11_SS" geographicalTags="_SGR_07">
        <iidm:voltageLevel id="_FVERGE11_VL" name="FVERGE11_VL" nominalV="380.0" topologyKind="BUS_BREAKER">
            <iidm:busBreakerTopology>
                <iidm:bus id="_FVERGE12_TN" v="406.45001220703125" angle="0.0"/>
                <iidm:bus id="_FVERGE11_TN" v="406.45001220703125" angle="0.0"/>
                <iidm:switch id="_FVERGE11-FVERGE12-A_SW" name="FVERGE11-FVERGE12-A" kind="BREAKER" retained="true" open="false" bus1="_FVERGE11_TN" bus2="_FVERGE12_TN"/>
            </iidm:busBreakerTopology>
            <iidm:generator id="_FVERGT11_SM" name="FVERGT11" energySource="OTHER" minP="-9999.0" maxP="9999.0" voltageRegulatorOn="true" targetP="-0.002566999988630414" targetV="406.45001220703125" targetQ="7.002781867980957" bus="_FVERGE11_TN" connectableBus="_FVERGE11_TN" p="0.002566999988630414" q="-7.002781867980957">
                <iidm:minMaxReactiveLimits minQ="-9999.0" maxQ="9999.0"/>
            </iidm:generator>
        </iidm:voltageLevel>
    </iidm:substation>
    <iidm:line id="_FP.AND11-FVERGE11-1_AC" name="FP.AND11-FVERGE11-1" r="0.00866399984806776" x="0.9992480278015137" g1="0.0" b1="0.0" g2="0.0" b2="0.0" bus1="_FP.AND11_TN" connectableBus1="_FP.AND11_TN" voltageLevelId1="_FP.AND11_VL" bus2="_FVERGE11_TN" connectableBus2="_FVERGE11_TN" voltageLevelId2="_FVERGE11_VL">
        <iidm:currentLimits1 permanentLimit="1000.0"/>
    </iidm:line>
    <iidm:line id="_FP.AND11-FVERGE11-2_AC" name="FP.AND11-FVERGE11-2" r="0.00866399984806776" x="0.9992480278015137" g1="0.0" b1="0.0" g2="0.0" b2="0.0" bus1="_FP.AND11_TN" connectableBus1="_FP.AND11_TN" voltageLevelId1="_FP.AND11_VL" bus2="_FVERGE11_TN" connectableBus2="_FVERGE11_TN" voltageLevelId2="_FVERGE11_VL">
        <iidm:currentLimits1 permanentLimit="1000.0"/>
    </iidm:line>
    <iidm:line id="_FS.BIS11-FVALDI11-1_AC" name="FS.BIS11-FVALDI11-1" r="0.00866399984806776" x="0.9992480278015137" g1="0.0" b1="0.0" g2="0.0" b2="0.0" bus1="_FS.BIS11_TN" connectableBus1="_FS.BIS11_TN" voltageLevelId1="_FS.BIS11_VL" bus2="_FVALDI11_TN" connectableBus2="_FVALDI11_TN" voltageLevelId2="_FVALDI11_VL">
        <iidm:currentLimits1 permanentLimit="1000.0"/>
    </iidm:line>
    <iidm:line id="_FS.BIS11-FVALDI11-2_AC" name="FS.BIS11-FVALDI11-2" r="0.00866399984806776" x="0.9992480278015137" g1="0.0" b1="0.0" g2="0.0" b2="0.0" bus1="_FS.BIS11_TN" connectableBus1="_FS.BIS11_TN" voltageLevelId1="_FS.BIS11_VL" bus2="_FVALDI11_TN" connectableBus2="_FVALDI11_TN" voltageLevelId2="_FVALDI11_VL">
        <iidm:currentLimits1 permanentLimit="1000.0"/>
    </iidm:line>
    <iidm:line id="_FSSV.O11-FP.AND11-1_AC" name="FSSV.O11-FP.AND11-1" r="0.00866399984806776" x="0.9992480278015137" g1="0.0" b1="0.0" g2="0.0" b2="0.0" bus1="_FSSV.O11_TN" connectableBus1="_FSSV.O11_TN" voltageLevelId1="_FSSV.O11_VL" bus2="_FP.AND11_TN" connectableBus2="_FP.AND11_TN" voltageLevelId2="_FP.AND11_VL">
        <iidm:currentLimits1 permanentLimit="1000.0"/>
    </iidm:line>
    <iidm:line id="_FSSV.O11-FP.AND11-2_AC" name="FSSV.O11-FP.AND11-2" r="0.00866399984806776" x="0.9992480278015137" g1="0.0" b1="0.0" g2="0.0" b2="0.0" bus1="_FSSV.O11_TN" connectableBus1="_FSSV.O11_TN" voltageLevelId1="_FSSV.O11_VL" bus2="_FP.AND11_TN" connectableBus2="_FP.AND11_TN" voltageLevelId2="_FP.AND11_VL">
        <iidm:currentLimits1 permanentLimit="1000.0"/>
    </iidm:line>
    <iidm:line id="_FSSV.O11-FTILL511-1_AC" name="FSSV.O11-FTILL511-1" r="0.00866399984806776" x="0.9992480278015137" g1="0.0" b1="0.0" g2="0.0" b2="0.0" bus1="_FSSV.O11_TN" connectableBus1="_FSSV.O11_TN" voltageLevelId1="_FSSV.O11_VL" bus2="_FTILL511_TN" connectableBus2="_FTILL511_TN" voltageLevelId2="_FTILL511_VL">
        <iidm:currentLimits1 permanentLimit="1000.0"/>
    </iidm:line>
    <iidm:line id="_FSSV.O11-FTILL511-2_AC" name="FSSV.O11-FTILL511-2" r="0.00866399984806776" x="0.9992480278015137" g1="0.0" b1="0.0" g2="0.0" b2="0.0" bus1="_FSSV.O11_TN" connectableBus1="_FSSV.O11_TN" voltageLevelId1="_FSSV.O11_VL" bus2="_FTILL511_TN" connectableBus2="_FTILL511_TN" voltageLevelId2="_FTILL511_VL">
        <iidm:currentLimits1 permanentLimit="1000.0"/>
    </iidm:line>
    <iidm:line id="_FTDPRA11-FVERGE11-1_AC" name="FTDPRA11-FVERGE11-1" r="0.00866399984806776" x="0.9992480278015137" g1="0.0" b1="0.0" g2="0.0" b2="0.0" bus1="_FTDPRA11_TN" connectableBus1="_FTDPRA11_TN" voltageLevelId1="_FTDPRA11_VL" bus2="_FVERGE11_TN" connectableBus2="_FVERGE11_TN" voltageLevelId2="_FVERGE11_VL">
        <iidm:currentLimits1 permanentLimit="1000.0"/>
    </iidm:line>
    <iidm:line id="_FTDPRA11-FVERGE11-2_AC" name="FTDPRA11-FVERGE11-2" r="0.00866399984806776" x="0.9992480278015137" g1="0.0" b1="0.0" g2="0.0" b2="0.0" bus1="_FTDPRA11_TN" connectableBus1="_FTDPRA11_TN" voltageLevelId1="_FTDPRA11_VL" bus2="_FVERGE11_TN" connectableBus2="_FVERGE11_TN" voltageLevelId2="_FVERGE11_VL">
        <iidm:currentLimits1 permanentLimit="1000.0"/>
    </iidm:line>
    <iidm:line id="_FTILL511-FS.BIS11-1_AC" name="FTILL511-FS.BIS11-1" r="0.00866399984806776" x="0.9992480278015137" g1="0.0" b1="0.0" g2="0.0" b2="0.0" bus1="_FTILL511_TN" connectableBus1="_FTILL511_TN" voltageLevelId1="_FTILL511_VL" bus2="_FS.BIS11_TN" connectableBus2="_FS.BIS11_TN" voltageLevelId2="_FS.BIS11_VL">
        <iidm:currentLimits1 permanentLimit="1000.0"/>
    </iidm:line>
    <iidm:line id="_FTILL511-FS.BIS11-2_AC" name="FTILL511-FS.BIS11-2" r="0.00866399984806776" x="0.9992480278015137" g1="0.0" b1="0.0" g2="0.0" b2="0.0" bus1="_FTILL511_TN" connectableBus1="_FTILL511_TN" voltageLevelId1="_FTILL511_VL" bus2="_FS.BIS11_TN" connectableBus2="_FS.BIS11_TN" voltageLevelId2="_FS.BIS11_VL">
        <iidm:currentLimits1 permanentLimit="1000.0"/>
    </iidm:line>
    <iidm:line id="_FVALDI11-FTDPRA11-1_AC" name="FVALDI11-FTDPRA11-1" r="0.00866399984806776" x="0.9992480278015137" g1="0.0" b1="0.0" g2="0.0" b2="0.0" bus1="_FVALDI11_TN" connectableBus1="_FVALDI11_TN" voltageLevelId1="_FVALDI11_VL" bus2="_FTDPRA11_TN" connectableBus2="_FTDPRA11_TN" voltageLevelId2="_FTDPRA11_VL">
        <iidm:currentLimits1 permanentLimit="1000.0"/>
    </iidm:line>
    <iidm:line id="_FVALDI11-FTDPRA11-2_AC" name="FVALDI11-FTDPRA11-2" r="0.00866399984806776" x="0.9992480278015137" g1="0.0" b1="0.0" g2="0.0" b2="0.0" bus1="_FVALDI11_TN" connectableBus1="_FVALDI11_TN" voltageLevelId1="_FVALDI11_VL" bus2="_FTDPRA11_TN" connectableBus2="_FTDPRA11_TN" voltageLevelId2="_FTDPRA11_VL">
        <iidm:currentLimits1 permanentLimit="1000.0"/>
    </iidm:line>
</iidm:network>